!****
!SPECIES LIST OF CB05E51_AE6_AQ MECHAMISM (CMAQ v5.2.1) from GEOS-Chem
!****
 
      INTEGER   N_CMAQ_SPC  ! number of CMAQ species
      PARAMETER ( N_CMAQ_SPC =  84 )
 
      INTEGER   N_CMAQ_GAS_SPC  ! number of CMAQ gas species
      PARAMETER ( N_CMAQ_GAS_SPC =  43 )
 
      INTEGER   N_GCHM_SPC  ! number of MOZART species
      PARAMETER ( N_GCHM_SPC = 127 )
 
 
      CHARACTER*16  CMAQ_SPECIES( N_CMAQ_SPC)
      REAL MWvar( N_CMAQ_SPC )
 
 
      CHARACTER*16  MOZART_SPECIES( N_GCHM_SPC)
 
      ! how to map MOZART species to CMAQ ones
      INTEGER GCHM_CMAQ_MAP( N_GCHM_SPC )
 
      ! map factors
      REAL GCHM_CMAQ_FACTORS( N_GCHM_SPC )
 
 
      ! do not change order of CMAQ species
      DATA CMAQ_SPECIES /
     &'AACD','ALD2','ALDX','APIN','BENZENE',
     &'BPIN','CL','CL2','CLNO2','CLO',
     &'CO','ETH','ETHA','FACD','FORM',
     &'H2O2','HCL','HNO3','HOCL','HONO',
     &'ISOP','MAPAN','MEOH','MEPX','MXYL',
     &'N2O5','NH3','NO','NO2','NO3',
     &'O3','OXYL','PACD','PAN','PANX',
     &'PAR','PNA','PXYL','SO2','SOAALK',
     &'TOL','TOLU','XYLMN',
     &'AALJ','ACAJ','ACLJ','ACLK','AECI',
     &'AECJ','AFEJ','AIVPO1J','AKJ','ALVOO1I',
     &'ALVOO1J','ALVOO2I','ALVOO2J','ALVPO1I','ALVPO1J',
     &'AMGJ','AMNJ','ANAJ','ANH4I','ANH4J',
     &'ANO3I','ANO3J','ANO3K','AOTHRJ','ASEACAT',
     &'ASIJ','ASO4I','ASO4J','ASO4K','ASOIL',
     &'ASVOO1I','ASVOO1J','ASVOO2I','ASVOO2J','ASVOO3J',
     &'ASVPO1I','ASVPO1J','ASVPO2I','ASVPO2J','ASVPO3J',
     &'ATIJ'/
 
 
      ! do not change order of CMAQ species
      ! only include molecular weight for aerosol species
      DATA MWvar /
     &   0.0,   0.0,   0.0,   0.0,   0.0,
     &   0.0,   0.0,   0.0,   0.0,   0.0,
     &   0.0,   0.0,   0.0,   0.0,   0.0,
     &   0.0,   0.0,   0.0,   0.0,   0.0,
     &   0.0,   0.0,   0.0,   0.0,   0.0,
     &   0.0,   0.0,   0.0,   0.0,   0.0,
     &   0.0,   0.0,   0.0,   0.0,   0.0,
     &   0.0,   0.0,   0.0,   0.0,   0.0,
     &   0.0,   0.0,   0.00,
     &  27.00,  40.10,  35.50,  35.50,  12.00,
     &  12.00,  55.80, 266.00,  39.10, 136.00,
     & 136.00, 136.00, 136.00, 218.00, 218.00,
     &  24.30,  54.90,  23.00,  18.00,  18.00,
     &  62.00,  62.00,  62.00, 200.00,  23.75,
     &  28.10,  96.00,  96.00,  96.00, 100.00,
     & 135.00, 135.00, 135.00, 135.00, 134.00,
     & 230.00, 230.00, 241.00, 241.00, 253.00,
     &  47.90/
 
 
      ! do not change order of MOZART species
      DATA MOZART_SPECIES /
     &'ACTA','ALD2','RCHO','MTPA','BENZ',
     &'MTPA','Cl','Cl2','ClNO2','ClO',
     &'CO','C2H4','C2H6','HCOOH','CH2O',
     &'H2O2','HCl','HNO3','HOCl','HNO2',
     &'ISOP','MPAN','MOH','MP','XYLE',
     &'N2O5','NH3','NO','NO2','NO3',
     &'O3','XYLE','MAP','PAN','PPN',
     &'C3H8','ALK4','ACET','C2H2','MEK',
     &'HNO4','XYLE','SO2','ALK4','TOLU',
     &'TOLU','XYLE',
     &
     &'DST1','DST1','SALA','DST1','SALACL',
     &'DST2','DST3','DST4','SALCCL','BCPI',
     &'BCPO','BCPI','BCPO','DST1','OCPI',
     &'OCPO','DST1','SALA','OCPI','OCPO',
     &'OCPI','OCPO','OCPI','OCPO','OCPI',
     &'OCPO','OCPI','OCPO','OCPI','OCPO',
     &'SALA','DST1','DST1','SALA','NH4',
     &'NH4','DST1','NIT','NIT','DST1',
     &'NITs','DST2','DST3','DST4','DST1',
     &'SALC','DST1','SO4','SO4','DST1',
     &'SALA','SO4s','DST2','DST3','DST4',
     &'SALC','DST2','DST3','DST4','OCPI',
     &'OCPO','OCPI','OCPO','OCPI','OCPO',
     &'OCPI','OCPO','OCPI','OCPO','OCPI',
     &'OCPO','OCPI','OCPO','OCPI','OCPO',
     &'OCPI','OCPO','OCPI','OCPO','DST1'/
 
 
      ! do not change order of map
      DATA GCHM_CMAQ_MAP /
     &  1,  2,  3,  4,  5,
     &  6,  7,  8,  9, 10,
     & 11, 12, 13, 14, 15,
     & 16, 17, 18, 19, 20,
     & 21, 22, 23, 24, 25,
     & 26, 27, 28, 29, 30,
     & 31, 32, 33, 34, 35,
     & 36, 36, 36, 36, 36,
     & 37, 38, 39, 40, 41,
     & 42, 43,
     &
     & 44, 45, 45, 46, 46,
     & 47, 47, 47, 47, 48,
     & 48, 49, 49, 50, 51,
     & 51, 52, 52, 53, 53,
     & 54, 54, 55, 55, 56,
     & 56, 57, 57, 58, 58,
     & 59, 60, 61, 61, 62,
     & 63, 63, 64, 65, 65,
     & 65, 66, 66, 66, 67,
     & 68, 69, 70, 71, 71,
     & 71, 71, 72, 72, 72,
     & 72, 73, 73, 73, 74,
     & 74, 75, 75, 76, 76,
     & 77, 77, 78, 78, 79,
     & 79, 80, 80, 81, 81,
     & 82, 82, 83, 83, 84/
 
 
      ! do not change order of MOZART species
      DATA GCHM_CMAQ_FACTORS /
     & 1.00000, 1.00000, 1.00000, 0.50000, 1.00000,
     & 0.25000, 1.00000, 1.00000, 1.00000, 1.00000,
     & 1.00000, 1.00000, 1.00000, 1.00000, 1.00000,
     & 1.00000, 1.00000, 1.00000, 1.00000, 1.00000,
     & 1.00000, 1.00000, 1.00000, 1.00000, 0.33300,
     & 1.00000, 1.00000, 1.00000, 1.00000, 1.00000,
     & 1.00000, 0.33300, 1.00000, 1.00000, 1.00000,
     & 1.00000, 0.80000, 1.00000, 1.00000, 1.00000,
     & 1.00000, 0.33300, 1.00000, 0.20000, 1.00000,
     & 1.00000, 1.00000,
     &
     & 0.05695, 0.07940, 0.01180, 0.00945, 1.00000,
     & 0.01190, 0.01190, 0.01190, 1.00000, 0.00100,
     & 0.00100, 0.99900, 0.99900, 0.03355, 0.10000,
     & 0.10000, 0.03770, 0.01140, 0.00100, 0.00100,
     & 0.09900, 0.09900, 0.00100, 0.00100, 0.09900,
     & 0.09900, 0.00100, 0.00100, 0.09900, 0.09900,
     & 0.03680, 0.00115, 0.03935, 0.30860, 0.01000,
     & 0.99000, 0.00005, 0.01000, 0.99000, 0.00020,
     & 1.00000, 0.00160, 0.00160, 0.00160, 0.50219,
     & 0.36850, 0.19435, 0.01000, 0.99000, 0.02250,
     & 0.07760, 1.00000, 0.02655, 0.02655, 0.02655,
     & 0.07760, 0.95995, 0.95995, 0.95995, 0.00100,
     & 0.00100, 0.09900, 0.09900, 0.00100, 0.00100,
     & 0.09900, 0.09900, 0.10000, 0.10000, 0.00100,
     & 0.00100, 0.09900, 0.09900, 0.00100, 0.00100,
     & 0.09900, 0.09900, 0.10000, 0.10000, 0.00280/
