prep_EXT/G2Lconv_SAPRC07TIC_AE6I_from_GEOS-Chem.EXT